data_H2O
_symmetry_space_group_name_H-M   'P 1'
_cell_length_a    20.000000
_cell_length_b    20.000000
_cell_length_c    20.000000
_cell_angle_alpha    90.000000
_cell_angle_beta     90.000000
_cell_angle_gamma    90.000000
loop_
_atom_site_label
_atom_site_type_symbol
_atom_site_fract_x
_atom_site_fract_y
_atom_site_fract_z
H1 H 0.53784752 0.50976470 0.50000000
O2 O 0.50000000 0.48047059 0.50000000
H3 H 0.46215248 0.50976470 0.50000000
